 .Sol file Watershed HRU:1 Subbasin:1 HRU:1 Luse:SOYB Soil: 2676641 Slope: 0-9999 1/6/2024 12:00:00 AM ArcSWAT 2012.10_8.26
 Soil Name: Blount
 Soil Hydrologic Group: D
 Maximum rooting depth(mm): 2000.00
 Porosity fraction from which anions are excluded:0.344
 Crack volume potential of soil:22.533
 Texture 1                : SIL- SIC- CL- CL
 Depth                [mm]:       50.80      152.40      250.00      830.00      990.00     2000.00
 Bulk Density Moist [g/cc]:        0.98        1.16        1.47        1.51        1.57        1.59
 Ave. AW Incl. Rock Frag  :        0.27        0.37        0.39        0.11        0.20        0.33
 Ksat. (est.)      [mm/hr]:       22.23       22.79       22.33       21.70        9.17        0.98
 Organic Carbon [weight %]:        1.92        1.34        1.16        0.50        0.25        0.25
 Clay           [weight %]:       22.00       22.00       22.00       42.00       35.00       33.00
 Silt           [weight %]:       56.00       56.00       56.00       42.00       40.00       45.00
 Sand           [weight %]:       22.00       22.00       22.00       16.00       25.00       22.00
 Rock Fragments   [vol. %]:        5.00        5.00        5.00        5.00        1.00        2.00
 Soil Albedo (Moist)      :        0.29        0.29        0.29        0.29        0.29        0.29
 Erosion K                :        0.37        0.37        0.37        0.32        0.37        0.37
 Salinity (EC, Form 5)    :        0.00        0.00        0.00        0.00        0.00        0.00
 Soil pH                  :        5.60        5.50        6.30        6.50        7.60        8.00
 Soil CACO3               :        0.00        0.00        0.00        0.00       12.00       24.00
                              
